Version 4
SHEET 1 2072 696
WIRE 352 48 352 16
WIRE 352 48 288 48
WIRE 288 64 288 48
WIRE 352 80 352 48
WIRE 112 320 16 320
WIRE 304 320 112 320
WIRE 528 336 368 336
WIRE 656 336 528 336
WIRE 768 336 736 336
WIRE 944 336 768 336
WIRE 1040 336 944 336
WIRE 160 352 144 352
WIRE 304 352 160 352
WIRE 16 384 16 320
WIRE 144 384 144 352
WIRE 768 384 768 336
WIRE 1040 384 1040 336
WIRE 768 496 768 448
WIRE 1040 496 1040 464
FLAG 16 464 0
FLAG 112 320 TriangleWF
FLAG 144 464 0
FLAG 160 352 Uin
FLAG 528 336 PWM_signal
FLAG 352 -64 E+
FLAG 336 304 E+
FLAG 352 160 E-
FLAG 336 368 E-
FLAG 288 64 0
FLAG 944 336 Vout
FLAG 1040 496 0
FLAG 768 496 0
SYMBOL voltage 16 368 R0
WINDOW 3 -530 90 Left 2
WINDOW 123 0 0 Left 0
WINDOW 39 0 0 Left 0
SYMATTR Value PULSE(-5 5 0 0.5m 0.5m 0m 0.05m 15000)
SYMATTR InstName V1
SYMBOL voltage 144 368 R0
WINDOW 3 38 89 Left 2
WINDOW 123 0 0 Left 0
WINDOW 39 0 0 Left 0
SYMATTR Value SINE(0 5 50 0 0 0 3000)
SYMATTR InstName V2
SYMBOL OpAmps\\UniversalOpAmp2 336 336 R0
SYMATTR InstName U2
SYMBOL voltage 352 -80 R0
WINDOW 123 0 0 Left 0
WINDOW 39 0 0 Left 0
SYMATTR InstName V3
SYMATTR Value 20
SYMBOL voltage 352 64 R0
WINDOW 123 0 0 Left 0
WINDOW 39 0 0 Left 0
SYMATTR InstName V4
SYMATTR Value 20
SYMBOL ind 640 352 R270
WINDOW 0 32 56 VTop 2
WINDOW 3 5 56 VBottom 2
SYMATTR InstName L1
SYMATTR Value 210m
SYMBOL cap 752 384 R0
SYMATTR InstName C1
SYMATTR Value 1.4µ
SYMBOL res 1024 368 R0
SYMATTR InstName R1
SYMATTR Value 1000
TEXT -272 32 Left 2 !.tran 0 200m 10m 1u
TEXT 272 -168 Left 2 ;Komparator
TEXT -120 496 Left 2 ;Referens\n(triangelvåg)
TEXT 168 496 Left 2 ;Insignal\n(t.ex. audio)
TEXT 696 232 Left 2 ;LC LP-filter
TEXT 1032 232 Left 2 ;Last
RECTANGLE Normal 432 416 240 -144 1
RECTANGLE Normal 896 544 624 256 1
RECTANGLE Normal 1136 544 992 256 1
