Version 4
SHEET 1 2072 696
WIRE 336 -96 336 -128
WIRE 336 -96 272 -96
WIRE 272 -80 272 -96
WIRE 336 -64 336 -96
WIRE 112 320 16 320
WIRE 304 320 112 320
WIRE 528 336 368 336
WIRE 976 336 528 336
WIRE 1088 336 1056 336
WIRE 1376 336 1088 336
WIRE 1472 336 1376 336
WIRE 160 352 144 352
WIRE 304 352 160 352
WIRE 16 384 16 320
WIRE 144 384 144 352
WIRE 1088 384 1088 336
WIRE 1472 384 1472 336
WIRE 1088 496 1088 448
WIRE 1232 496 1232 448
WIRE 1472 496 1472 464
FLAG 16 464 0
FLAG 112 320 TriangleWF
FLAG 144 464 0
FLAG 160 352 Uin
FLAG 528 336 PWM_signal
FLAG 336 -208 E+
FLAG 336 304 E+
FLAG 336 16 E-
FLAG 336 368 E-
FLAG 272 -80 0
FLAG 1376 336 Vout
FLAG 1472 496 0
FLAG 1088 496 0
FLAG 1232 496 0
SYMBOL voltage 16 368 R0
WINDOW 3 -530 90 Left 2
WINDOW 123 0 0 Left 0
WINDOW 39 0 0 Left 0
SYMATTR Value PULSE(-5 5 0 0.5m 0.5m 0m 0.05m 15000)
SYMATTR InstName V1
SYMBOL voltage 144 368 R0
WINDOW 3 38 89 Left 2
WINDOW 123 0 0 Left 0
WINDOW 39 0 0 Left 0
SYMATTR Value SINE(0 5 50 0 0 0 3000)
SYMATTR InstName V2
SYMBOL OpAmps\\UniversalOpAmp2 336 336 R0
SYMATTR InstName U2
SYMBOL voltage 336 -224 R0
WINDOW 123 0 0 Left 0
WINDOW 39 0 0 Left 0
SYMATTR InstName V3
SYMATTR Value 20
SYMBOL voltage 336 -80 R0
WINDOW 123 0 0 Left 0
WINDOW 39 0 0 Left 0
SYMATTR InstName V4
SYMATTR Value 20
SYMBOL ind 960 352 R270
WINDOW 0 32 56 VTop 2
WINDOW 3 5 56 VBottom 2
SYMATTR InstName L1
SYMATTR Value 210m
SYMBOL cap 1072 384 R0
SYMATTR InstName C1
SYMATTR Value 1.4µ
SYMBOL cap 1216 384 R0
SYMATTR InstName C2
SYMATTR Value 1.27µ
SYMBOL res 1456 368 R0
SYMATTR InstName R1
SYMATTR Value 1000
TEXT -272 32 Left 2 !.tran 0 200m 10m 1u
TEXT 256 -312 Left 2 ;Komparator
TEXT -120 496 Left 2 ;Referens\n(triangelvåg)
TEXT 168 496 Left 2 ;Insignal\n(t.ex. audio)
TEXT 1064 232 Left 2 ;LC LP-filter
TEXT 1464 232 Left 2 ;Last
RECTANGLE Normal 896 576 624 -288 1
RECTANGLE Normal 432 416 224 -288 1
RECTANGLE Normal 1328 544 944 256 1
RECTANGLE Normal 1568 544 1424 256 1
